LAMMPS (11 Nov 2013)
# NaCl test problem for embedded atom method (EIM) potential

units		metal

boundary	p p p

box tilt large

atom_style      atomic

read_data       data.gan
  triclinic box = (0 0 0) to (9.57 8.28786 15.567) with tilt (-4.785 0 0)
  108 atoms

pair_style      tersoff
pair_coeff      * * GaN.tersoff  Ga N

variable        t equal 2000

neighbor	0.3 bin

timestep        0.001

thermo_style    custom step etotal temp vol press
thermo          1000

velocity        all create $t 3627941 dist gaussian mom yes
velocity        all create 2000 3627941 dist gaussian mom yes
velocity          all scale $t
velocity          all scale 2000

fix             int all nvt temp $t $t 0.5  #between 0.2-2.0
fix             int all nvt temp 2000 $t 0.5
fix             int all nvt temp 2000 2000 0.5

run             10000
Step TotEng Temp Volume Press
0   -461.30525         2000    1234.6943    14400.541
Averages over the last 6 of 11 rows, steps 5000 to 10000:
TotEng Temp Volume Press
-430.807 2029.51 1234.69 34429.1
Loop time of 4.99223 on 1 procs (1 MPI x 1 OpenMP) for 10000 steps with 108 atoms

Pair  time (%) = 4.84373 (97.0254)
Neigh time (%) = 0.10759 (2.15516)
Comm  time (%) = 0.0182981 (0.366533)
Outpt time (%) = 0.000142097 (0.00284637)
Other time (%) = 0.0224681 (0.450061)

dump            dynaphopy all custom 1 gan_2000_vel.lammpstrj vx vy vz
dump_modify     dynaphopy sort id

run             50000
Step TotEng Temp Volume Press
10000   -431.44962    2115.8553    1234.6943    21111.891
Averages over the last 26 of 51 rows, steps 35000 to 60000:
TotEng Temp Volume Press
-432.792 1971.51 1234.69 32136.6
Loop time of 29.0344 on 1 procs (1 MPI x 1 OpenMP) for 50000 steps with 108 atoms

Pair  time (%) = 24.5423 (84.5284)
Neigh time (%) = 0.536974 (1.84944)
Comm  time (%) = 0.0940127 (0.323798)
Outpt time (%) = 3.73478 (12.8633)
Other time (%) = 0.126319 (0.435067)
